&time_control
run_days                            = 0,
run_hours                           = 0,
run_minutes                         = 0,
run_seconds                         = 0,
start_year                          = 2022, 2022, 2022,
start_month                         = 08, 08, 08, 
start_day                           = 01,  01,  01, 
start_hour                          = 00,  00, 00, 
end_year                            = 2022, 2022, 2022, 
end_month                           = 08, 08, 08, 
end_day                             = 02,  02,  02,  
end_hour                            = 00, 00, 00, 
interval_seconds                    = 21600
input_from_file                     = .true., .true., .true.,
history_interval                    = 60, 60, 60,
frames_per_outfile                  = 1,  1, 1,
restart                             = .false.,
restart_interval                    = 86400,
io_form_history                     = 2
io_form_restart                     = 2
io_form_input                       = 2
io_form_boundary                    = 2
debug_level                         = 0,
! iofields_filename	                = "iofields_VPRM.txt","iofields_VPRM.txt","iofields_VPRM.txt",
! ignore_iofields_warning             = .true.,
! auxinput15_inname                   = "vprm_input_d<domain>_<date>.nc" ! there is .nc extension when copying after shapeshifter
! auxinput15_interval                 = 86400, 86400,86400,
! io_form_auxinput15                  = 2,
! force_use_old_data                  = .true.
/

&domains
time_step                           = 9,
time_step_fract_num                 = 0,
time_step_fract_den                 = 1,
max_dom                             = 1,
e_we                                = 339, 328, 211
e_sn                                = 285, 328, 171
e_vert 	   		                    = 45, 45, 45,
dzstretch_s                         = 1.1
p_top_requested                     = 5000,
num_metgrid_levels                  = 34,
num_metgrid_soil_levels             = 4,
dx                                  = 3000, 1000, 200,
dy                                  = 3000, 1000, 200,
grid_id                             = 1, 2, 3, 
parent_id                           = 0, 1, 2, 
 i_parent_start       = 1, 119, 138
 j_parent_start       = 1, 108, 219
parent_grid_ratio                   = 1, 3, 5, 
parent_time_step_ratio              = 1, 3, 5,
feedback                            = 1,
smooth_option                       = 0,
! nproc_x =    3
! nproc_y =    3
/

&physics
mp_physics               = 6,10,10,
mp_zero_out              = 2,      
ra_lw_physics            = 4,4,4,
ra_sw_physics            = 4,4,4,
radt                     = 3,3,3,
sf_sfclay_physics        = 4,2,2,
sf_surface_physics       = 2,2,2,
sf_urban_physics         = 0,0,0,
num_soil_layers          = 4,
bl_pbl_physics           = 4,2,2,
bldt                     = 0,0,0,
cu_physics               = 0,0,0,
cudt                     = 0,0,0,
cu_diag			         = 0,0,0,
cugd_avedx               = 1,
cu_rad_feedback          = .false.,.false., .false., 
isfflx                   = 1,
ifsnow                   = 0,
icloud                   = 1,
! sf_surface_mosaic = 1
num_land_cat = 44
/

&chem 
chem_opt 		        = 0, 0, 0,
vprm_opt 		        = 'VPRM_table_ALPS', 'VPRM_table_ALPS', 'VPRM_table_ALPS',
gas_drydep_opt  	    = 0, 0, 0,
gas_ic_opt  		    = 16, 16, 16,
emiss_opt  		        = 16, 16, 16,
bio_emiss_opt  	        = 16, 16, 16,
emiss_inpt_opt  	    = 16, 16, 16,
chem_in_opt  		    = 0, 0, 0,
chem_conv_tr 		    = 0, 0, 0,
vertmix_onoff       	= 0, 0, 0,
aer_ra_feedback  	    = 0, 0, 0,
photdt  		        = 30, 30, 30, 
chemdt 		            = 2.0, 2.0, 2.0,
/

&fdda
/

&dynamics
hybrid_opt                          = 2, 
w_damping                           = 0, 
diff_opt                            = 2, 2, 2,  
km_opt                              = 4, 4, 4, 
diff_6th_opt                        = 0, 0, 0,   
diff_6th_factor                     = 0.12, 0.12, 0.12, 
base_temp                           = 290., 
damp_opt                            = 3, 
zdamp                               = 3000., 3000., 3000.,
dampcoef                            = 0.2, 0.2, 0.2,
khdif                               = 0, 0, 0,
kvdif                               = 0, 0, 0,
non_hydrostatic                     = .true., .true., .true.,
moist_adv_opt                       = 1, 1, 1,
scalar_adv_opt                      = 1, 1, 1,
gwd_opt                             = 1, 1, 1,
/

&bdy_control
spec_bdy_width                      = 5,
specified                           = .true., .false., .false., 
nested 			                    = .false., .true., .true.,
/

&grib2
/

&namelist_quilt
nio_tasks_per_group = 0,
nio_groups = 1,
/
